26
tlenek tytanu IV dtio=1,83A
Ti1 0.00 0.00 0.00 
Ti2 0.00 0.00 4.59
Ti3 4.59 0.00 4.59
Ti4 9.18 0.00 4.59
Ti5 9.18 0.00 0.00
Ti6 4.59 0.00 0.00
Ti7 0.00 2.30 4.59
Ti8 4.59 2.30 4.59
Ti9 9.18 2.30 4.59
Ti10 9.18 2.30 0.00
Ti11 4.59 2.30 0.00
Ti12 0.00 2.30 0.00
Ti13 2.30 1.15 2.30
Ti14 6.89 1.15 2.30
O1 1.29 0.00 3.30
O2 3.30 0.00 1.29
O3 1.29 2.30 3.30
O4 3.30 2.30 1.29
O5 5.88 0.00 3.30
O6 7.89 0.00 1.29
O7 5.88 2.30 3.30
O8 7.89 2.30 1.29
O9 1.00 1.15 1.00
O10 3.59 1.15 3.59
O11 5.59 1.15 1.00
O12 8.18 1.15 3.59